#
#
# ******************
# ECCO cost function
# ******************
 &COST_NML
#
 mult_test = 0.,
 mult_mean_salt = 1.,
# mult_temp_tut  = 1.,
# mult_hflux_tut = 2.,
# lastinterval= 864000.,
#lastinterval=31104000.,
 lastinterval=1728000.,
 &
